/*--------------------------------*- C++ -*----------------------------------*\
| =========                 |                                                 |
| \\      /  F ield         | OpenFOAM: The Open Source CFD Toolbox           |
|  \\    /   O peration     | Version:  2.4.0                                 |
|   \\  /    A nd           | Web:      www.OpenFOAM.org                      |
|    \\/     M anipulation  |                                                 |
\*---------------------------------------------------------------------------*/
FoamFile
{
    version     2.0;
    format      ascii;
    class       dictionary;
    object      blockMeshDict;
}
// * * * * * * * * * * * * * * * * * * * * * * * * * * * * * * * * * * * * * //

backgroundMesh
{
    xMin    -4;
    xMax    30;
    yMin    -5;
    yMax     5;
    zMin    -0.1;
    zMax     0.1;
    xCells  100;
    yCells  40;
    zCells  1;
}

convertToMeters 1;

vertices
(
    ($:backgroundMesh.xMin $:backgroundMesh.yMin $:backgroundMesh.zMin)
    ($:backgroundMesh.xMax $:backgroundMesh.yMin $:backgroundMesh.zMin)
    ($:backgroundMesh.xMax $:backgroundMesh.yMax $:backgroundMesh.zMin)
    ($:backgroundMesh.xMin $:backgroundMesh.yMax $:backgroundMesh.zMin)

    ($:backgroundMesh.xMin $:backgroundMesh.yMin $:backgroundMesh.zMax)
    ($:backgroundMesh.xMax $:backgroundMesh.yMin $:backgroundMesh.zMax)
    ($:backgroundMesh.xMax $:backgroundMesh.yMax $:backgroundMesh.zMax)
    ($:backgroundMesh.xMin $:backgroundMesh.yMax $:backgroundMesh.zMax)
);

blocks
(
    hex (0 1 2 3 4 5 6 7)
    (
        $:backgroundMesh.xCells
        $:backgroundMesh.yCells
        $:backgroundMesh.zCells
    )
    simpleGrading (1 1 1)
);

edges
(
);

boundary
(
    inlet
{
	type patch;
	faces
	(
	    (0 3 7 4)
	);

}

outlet
{
	type patch;
	faces
	(
	    (1 2 6 5)
	);
}

	down
	{
		type empty;
		faces
		(
            (0 1 2 3)

		);
	}
	up
	{
		type empty;
		faces
		(
            (4 5 6 7)

		);
	}
	sides
	{
		type wall;
		faces
		(
            (0 1 5 4)
            (3 2 6 7)
		);
	}

    
);

mergePatchPairs
(
);

// ************************************************************************* //
