FoamFile
{
    version     5.0;
    format      ascii;
    class       dictionary;
    object      ITHACAPODdict;
}

// Set fields you want to use to perform the POD
// Do not specify here the field name but insert it in the subdictionary 
fields
(
U_pod
p_pod
);

U_pod
{
// Specify the field name
field_name U;
// Specify the number of modes you want to extract
nmodes 10;
// Specify the type of field (if vector or scalar)
field_type vector;
}

p_pod
{
// Specify the field name
field_name p;
// Specify the number of modes you want to extract
nmodes 10;
// Specify the type of field (if vector or scalar)
field_type scalar;
}

// Set Time from which you want to start taking the Snapshots
InitialTime 0;

// Set Time when you want to stop taking the Snapshots (if you leave it empty it will take all the snaphsots in the folder)
FinalTime 0.01;

// Eventually you could set just InitalTime and Number of Snapshots you want    
//Nsnapshots 40;






// ************************************************************************* //
