/*--------------------------------*- C++ -*----------------------------------*\
| =========                 |                                                 |
| \\      /  F ield         | OpenFOAM: The Open Source CFD Toolbox           |
|  \\    /   O peration     | Version:  v1806                                 |
|   \\  /    A nd           | Web:      www.OpenFOAM.com                      |
|    \\/     M anipulation  |                                                 |
\*---------------------------------------------------------------------------*/
FoamFile
{
    version     2.0;
    format      ascii;
    class       dictionary;
    object      blockMeshDict;
}
// * * * * * * * * * * * * * * * * * * * * * * * * * * * * * * * * * * * * * //

scale   1;

vertices
(
    (0 0 0)
    (1 0 0)
    (1 1 0)
    (0 1 0)

    (0 0 1)
    (1 0 1)
    (1 1 1)
    (0 1 1)
);



blocks
(
    hex (0 1 2 3 4 5 6 7) (40 40 40 ) simpleGrading (1 1 1)
);

edges
(
);

boundary
(
    hotSide
    {
        type patch;
        faces
        (
            (0 1 5 4)
        );
    }
    coldSide
    {
        type patch;
        faces
        (
            (3 2 6 7)
        );
    }
    gammaEx1
    {
        type patch;
        faces
        (
            (4 5 6 7)
         );
    }
    gammaEx2
    {
        type patch;
        faces
        (
            (1 5 6 2)
         );
    }
    gammaEx3
    {
        type patch;
        faces
        (
            (0 1 2 3)
         );
    }
    gammaEx4
    {
        type patch;
        faces
        (
            (0 4 7 3)
         );
    }
);


// ************************************************************************* //
