/*--------------------------------*- C++ -*----------------------------------*\
| =========                 |                                                 |
| \\      /  F ield         | OpenFOAM: The Open Source CFD Toolbox           |
|  \\    /   O peration     | Version:  v2006                                 |
|   \\  /    A nd           | Website:  www.openfoam.com                      |
|    \\/     M anipulation  |                                                 |
\*---------------------------------------------------------------------------*/
FoamFile
{
    version     2.0;
    format      ascii;
    class       polyBoundaryMesh;
    location    "constant/polyMesh";
    object      boundary;
}
// * * * * * * * * * * * * * * * * * * * * * * * * * * * * * * * * * * * * * //

6
(
    top
    {
        type            wall;
        inGroups        1(wall);
        nFaces          60;
        startFace       31760;
    }
    bottom
    {
        type            wall;
        inGroups        1(wall);
        nFaces          60;
        startFace       31820;
    }
    inlet
    {
        type            patch;
        inGroups        1(freestream);
        nFaces          200;
        startFace       31880;
    }
    outlet
    {
        type            patch;
        inGroups        1(freestream);
        nFaces          160;
        startFace       32080;
    }
    back
    {
        type            empty;
        inGroups        1(empty);
        nFaces          16000;
        startFace       32240;
    }
    front
    {
        type            empty;
        inGroups        1(empty);
        nFaces          16000;
        startFace       48240;
    }
)

// ************************************************************************* //
