/*--------------------------------*- C++ -*----------------------------------*\
| =========                 |                                                 |
| \\      /  F ield         | OpenFOAM: The Open Source CFD Toolbox           |
|  \\    /   O peration     | Version:  2406                                  |
|   \\  /    A nd           | Website:  www.openfoam.com                      |
|    \\/     M anipulation  |                                                 |
\*---------------------------------------------------------------------------*/
FoamFile
{
    version     2.0;
    format      ascii;
    arch        "LSB;label=32;scalar=64";
    class       polyBoundaryMesh;
    location    "constant/polyMesh";
    object      boundary;
}
// * * * * * * * * * * * * * * * * * * * * * * * * * * * * * * * * * * * * * //

5
(
    movingWall
    {
        type            wall;
        inGroups        1(wall);
        nFaces          64;
        startFace       8064;
    }
    bottom
    {
        type            wall;
        inGroups        1(wall);
        nFaces          64;
        startFace       8128;
    }
    left
    {
        type            wall;
        inGroups        1(wall);
        nFaces          64;
        startFace       8192;
    }
    right
    {
        type            wall;
        inGroups        1(wall);
        nFaces          64;
        startFace       8256;
    }
    frontAndBack
    {
        type            empty;
        inGroups        1(empty);
        nFaces          8192;
        startFace       8320;
    }
)

// ************************************************************************* //
