/*--------------------------------*- C++ -*----------------------------------*\
| =========                 |                                                 |
| \\      /  F ield         | OpenFOAM: The Open Source CFD Toolbox           |
|  \\    /   O peration     | Version:  2.1.0                                 |
|   \\  /    A nd           | Web:      www.OpenFOAM.org                      |
|    \\/     M anipulation  |                                                 |
\*---------------------------------------------------------------------------*/
FoamFile
{
    version     2.0;
    format      ascii;
    class       dictionary;
    object      decayheatProperties;
}

// * * * * * * * * * * * * * * * * * * * * * * * * * * * * * * * * * * * * * //
decLam1          decLam1 [0 0 -1 0 0 0 0] 0.1973;
decLam2          decLam2 [0 0 -1 0 0 0 0] 0.0168;
decLam3          decLam3 [0 0 -1 0 0 0 0] 3.58e-4;

decBeta1         decBeta1 [0 0 0 0 0 0 0] 1.17e-2;
decBeta2         decBeta2 [0 0 0 0 0 0 0] 1.29e-2;
decBeta3         decBeta3 [0 0 0 0 0 0 0] 1.86e-2;



// ************************************************************************* //
