/*--------------------------------*- C++ -*----------------------------------*\
| =========                 |                                                 |
| \\      /  F ield         | OpenFOAM: The Open Source CFD Toolbox           |
|  \\    /   O peration     | Version:  2.1.0                                 |
|   \\  /    A nd           | Web:      www.OpenFOAM.org                      |
|    \\/     M anipulation  |                                                 |
\*---------------------------------------------------------------------------*/
FoamFile
{
    version     2.0;
    format      ascii;
    class       dictionary;
    object      nuclearProperties;
}

// * * * * * * * * * * * * * * * * * * * * * * * * * * * * * * * * * * * * * //

IV1             IV1 [0 -1 1 0 0 0 0] 6.55767e-07; 

D1_0            D1_0 [0 1 0 0 0 0 0] 1.17204e-02;
alfa_D1         alfa_D1 [0 1 0 0 0 0 0] -5.9788e-05; 

A1_0            A1_0 [0 -1 0 0 0 0 0] 6.89269e-01;
alfa_A1         alfa_A1 [0 -1 0 0 0 0 0] 7.8420e-03;

NSF1_0          NSF1_0 [0 -1 0 0 0 0 0] 7.53492e-01;

alfa_NSF1       alfa_NSF1 [0 -1 0 0 0 0 0] -1.7001e-02;

SP1_0           SP1_0 [1 1 -2 0 0 0 0] 9.5731e-12;
alfa_SP1        alfa_SP1 [1 1 -2 0 0 0 0] -2.0595e-13;

TrefXS          TrefXS [0 0 0 1 0 0 0] 900; 

Keff		Keff	[0 0 0 0 0 0 0] 1;

alpha		alpha	[0 0 0 -1 0 0 0] -6e-05;

// ************************************************************************* //
