/*--------------------------------*- C++ -*----------------------------------*\
| =========                 |                                                 |
| \\      /  F ield         | OpenFOAM: The Open Source CFD Toolbox           |
|  \\    /   O peration     | Version:  v1912                                 |
|   \\  /    A nd           | Website:  www.openfoam.com                      |
|    \\/     M anipulation  |                                                 |
\*---------------------------------------------------------------------------*/
FoamFile
{
    version     2.0;
    format      ascii;
    class       dictionary;
    object      fvSolution;
}
// * * * * * * * * * * * * * * * * * * * * * * * * * * * * * * * * * * * * * //

solvers
{
    p
    {
        solver          GAMG;
        smoother        GaussSeidel;
        tolerance       1e-6;
        relTol          0.01;
    }

    pFinal
    {
        $p;
        relTol          0;
    }

    "(rho|U|k|omega|e|nuTilda)"
    {
        solver          PBiCGStab;
        preconditioner  DILU;
        tolerance       1e-6;
        relTol          0.1;
    }

    "(rho|U|k|omega|e|nuTilda)Final"
    {
        $U;
        relTol          0;
    }

    cellMotionUx
    {
        solver          PCG;
        preconditioner  DIC;
        tolerance       1e-08;
        relTol          0;
    }
    cellMotionUxFinal
    {
        solver          PCG;
        preconditioner  DIC;
        tolerance       1e-08;
        relTol          0;
    }

    "cellDisplacement.*"
    {
        solver          GAMG;
        tolerance       1e-5;
        relTol          0;
        smoother        GaussSeidel;
        cacheAgglomeration true;
        nCellsInCoarsestLevel 10;
        agglomerator    faceAreaPair;
        mergeLevels     1;
    }
    pcorr
    {
        solver          GAMG;
        tolerance       0.02;
        relTol          0;
        smoother        GaussSeidel;
        nPreSweeps      0;
        nPostSweeps     2;
        cacheAgglomeration no;
        nCellsInCoarsestLevel 10;
        agglomerator    faceAreaPair;
        mergeLevels     1;
    }
    pcorrFinal
    {
        $pcorr;
        tolerance       1e-06;
        relTol          0.1;
    }


}

SIMPLE
{
    residualControl
    {
        p               1e-4;
        U               1e-4;
        "(k|omega|e)"   1e-4;
    }

    nNonOrthogonalCorrectors 0;
    pMinFactor      0.1;
    pMaxFactor      2;
}

PIMPLE
{
    consistent      yes;
    transonic       yes;
    nCorrectors              2;
    nNonOrthogonalCorrectors 1;
    nOuterCorrectors         1;
    pMinFactor      0.1;
    pMaxFactor      2;
}

relaxationFactors
{
    equations
    {
        ".*"     1;
    }
}

// ************************************************************************* //
