/*--------------------------------*- C++ -*----------------------------------*\
| =========                 |                                                 |
| \\      /  F ield         | OpenFOAM: The Open Source CFD Toolbox           |
|  \\    /   O peration     | Version:  2.1.1                                 |
|   \\  /    A nd           | Web:      www.OpenFOAM.org                      |
|    \\/     M anipulation  |                                                 |
\*---------------------------------------------------------------------------*/
FoamFile
{
    version     2.0;
    format      ascii;
    class       dictionary;
    object      blockMeshDict;
}
// * * * * * * * * * * * * * * * * * * * * * * * * * * * * * * * * * * * * * //

convertToMeters 0.1;

vertices
(
     (-0.5  0  -0.5)
     ( 0.5   0  -0.5)
     ( 0.5   0.5  -0.5)
     (-0.5   0.5  -0.5)
     (-0.5   0   0.5)
     ( 0.5   0   0.5)
     ( 0.5   0.5   0.5)
     (-0.5   0.5   0.5)
);

blocks
(
     hex (0 1 2 3 4 5 6 7)          (50 1 50) simpleGrading (1 1 1)
);

edges
(
);

patches
(
    wall movingWall
    (
        (4 5 6 7)
    )
    wall bottomWall
    (
        (0 1 2 3)
    )
    wall rightWall
    (
        (1 2 5 6)
    )
    wall leftWall
    (
        (0 3 7 4)
    )
    empty frontPlane
    (
        (3 2 6 7)
    )
    empty backPlane
    (
        (0 1 5 4)
    )    
);



// ************************************************************************* //
