/*--------------------------------*- C++ -*----------------------------------*\
| =========                 |                                                 |
| \\      /  F ield         | OpenFOAM: The Open Source CFD Toolbox           |
|  \\    /   O peration     | Version:  2.2.2                                 |
|   \\  /    A nd           | Web:      www.OpenFOAM.org                      |
|    \\/     M anipulation  |                                                 |
\*---------------------------------------------------------------------------*/
FoamFile
{
    version     2.0;
    format      ascii;
    class       dictionary;
    object      fvSolution;
}
// * * * * * * * * * * * * * * * * * * * * * * * * * * * * * * * * * * * * * //

solvers
{
    p
    {
        solver           GAMG;
        tolerance        1e-10;
        relTol           0.01;
        smoother         GaussSeidel;
        nPreSweeps       0;
        nPostSweeps      2;
        cacheAgglomeration on;
        agglomerator     faceAreaPair;
        nCellsInCoarsestLevel 10;
        mergeLevels      1;
    }

    u_sup
    {
        solver          smoothSolver;
        smoother        GaussSeidel;
        nSweeps         1;
        tolerance       1e-09;
        relTol          0.1;
    }

    pcorr
    {
        
        $p;
        tolerance        0.02;
        relTol           0;
    }


    pFinal
    {
        $p;
        tolerance        1e-6;
        relTol           0;
    }

    "(U|k|omega)"
    {
	solver           GAMG;
        tolerance        1e-10;
        relTol           0.0001;
        smoother         GaussSeidel;
        nPreSweeps       0;
        nPostSweeps      2;
        cacheAgglomeration on;
        agglomerator     faceAreaPair;
        nCellsInCoarsestLevel 10;
        mergeLevels      1;
    }

    "(U|k|omega)Final"
    {
        $U;
        tolerance       1e-08;
        relTol          0;
    }
    Phi
    {
        $p;
    }

    Usup
    {
        type            coupled;  // optional, defaults to segregated
        solver          PBiCCCG;
        preconditioner  DILU;
        tolerance       (1e-06 1e-06 1e-06);
        relTol          (0 0 0);
    }
}

relaxationFactors
{
    fields
    {
        p               0.3;
    }
    equations
    {
        U               0.7;
        nuTilda         0.7;
    }
}

potentialFlow
{
    nNonOrthogonalCorrectors 10;
}

PISO
{
    nCorrectors     2;
    nNonOrthogonalCorrectors 0;
    pRefCell        0;
    pRefValue       0;
}


cache
{
    grad(U);
}

PIMPLE
{
    correctPhi          yes;
    nOuterCorrectors    2;
    nCorrectors         2;
    nNonOrthogonalCorrectors 0;
    pRefCell        0;
    pRefValue       0;
}
SIMPLE
{
    nNonOrthogonalCorrectors 0;
    nOuterCorrectors    2;
    nCorrectors         2;
    pRefCell        0;
    pRefValue       0;

    residualControl
    {
        p               1e-9;
        U               1e-9;
        nuTilda         1e-6;
    }
}


// ************************************************************************* //
