/*--------------------------------*- C++ -*----------------------------------*\
| =========                 |                                                 |
| \\      /  F ield         | OpenFOAM: The Open Source CFD Toolbox           |
|  \\    /   O peration     | Version:  v1912                                 |
|   \\  /    A nd           | Website:  www.openfoam.com                      |
|    \\/     M anipulation  |                                                 |
\*---------------------------------------------------------------------------*/
FoamFile
{
    version     2.0;
    format      ascii;
    class       polyBoundaryMesh;
    location    "constant/polyMesh";
    object      boundary;
}
// * * * * * * * * * * * * * * * * * * * * * * * * * * * * * * * * * * * * * //

6
(
    hotSide
    {
        type            patch;
        nFaces          1600;
        startFace       187200;
    }
    coldSide
    {
        type            patch;
        nFaces          1600;
        startFace       188800;
    }
    gammaEx1
    {
        type            patch;
        nFaces          1600;
        startFace       190400;
    }
    gammaEx2
    {
        type            patch;
        nFaces          1600;
        startFace       192000;
    }
    gammaEx3
    {
        type            patch;
        nFaces          1600;
        startFace       193600;
    }
    gammaEx4
    {
        type            patch;
        nFaces          1600;
        startFace       195200;
    }
)

// ************************************************************************* //
