FoamFile
{
version 2.0;
format ascii;
class dictionary;
object blockMeshDict;
}
convertToMeters 1;
vertices
(
    (0 0 0)
    (1 0 0)
    (1 -.5 0)
    (2 -.5 0)
    (2 0 0)
    (2 1 0)
    (1 1 0)
    (0 1 0)
    (0 0 0.1)
    (1 0 0.1)
    (1 -.5 0.1)
    (2 -.5 0.1)
    (2 0 0.1)
    (2 1 0.1)
    (1 1 0.1)
    (0 1 0.1)
);
blocks
(
    hex (0 1 6 7 8 9 14 15) (100 100 1) simpleGrading (1 1 1)
    hex (1 4 5 6 9 12 13 14) (100 100 1) simpleGrading (1 1 1)
    hex (2 3 4 1 10 11 12 9) (100 50 1) simpleGrading (1 1 1)
);
edges
(
);
boundary
(
    inlet
    {
        type patch;
        faces
        (
            (0 8 15 7)
        );
    }
    outlet
    {
        type patch;
        faces
        (
            (3 11 12 4)
            (4 12 13 5)
        );
    }
    frontAndBack
    {
        type empty;
        faces
        (
            (0 1 6 7)
            (8 9 14 15)
            (2 3 4 1)
            (10 11 12 9)
            (1 4 5 6)
	        (9 12 13 14)
        );
    }
    inlet2
    {
        type patch;
        faces
        (
        	(2 10 9 1)
        );
    }
    walls
    {
        type wall;
        faces
        (
	(0 1 9 8)
	(2 3 11 10)
	(7 6 14 15)
	(6 5 13 14)
        );
     }
);
mergePatchPairs
(
);
