/*---------------------------------------------------------------------------*\
     ██╗████████╗██╗  ██╗ █████╗  ██████╗ █████╗       ███████╗██╗   ██╗
     ██║╚══██╔══╝██║  ██║██╔══██╗██╔════╝██╔══██╗      ██╔════╝██║   ██║
     ██║   ██║   ███████║███████║██║     ███████║█████╗█████╗  ██║   ██║
     ██║   ██║   ██╔══██║██╔══██║██║     ██╔══██║╚════╝██╔══╝  ╚██╗ ██╔╝
     ██║   ██║   ██║  ██║██║  ██║╚██████╗██║  ██║      ██║      ╚████╔╝ 
     ╚═╝   ╚═╝   ╚═╝  ╚═╝╚═╝  ╚═╝ ╚═════╝╚═╝  ╚═╝      ╚═╝       ╚═══╝  
 
 * In real Time Highly Advanced Computational Applications for Finite Volumes 
 * Copyright (C) 2017 by the ITHACA-FV authors
-------------------------------------------------------------------------------

License
    This file is part of ITHACA-FV

    ITHACA-FV is free software: you can redistribute it and/or modify
    it under the terms of the GNU Lesser General Public License as published by
    the Free Software Foundation, either version 3 of the License, or
    (at your option) any later version.

    ITHACA-FV is distributed in the hope that it will be useful,
    but WITHOUT ANY WARRANTY; without even the implied warranty of
    MERCHANTABILITY or FITNESS FOR A PARTICULAR PURPOSE. See the
    GNU Lesser General Public License for more details.

    You should have received a copy of the GNU Lesser General Public License
    along with ITHACA-FV. If not, see <http://www.gnu.org/licenses/>.

\*---------------------------------------------------------------------------*/

FoamFile
{
    version     2.0;
    format      ascii;
    class       dictionary;
    location    "system";
    object      FORCESdict;
}

rhoName rhoInf;
UName U_rec;
pName P_rec;
log false;           // If you want to write out Infos on the screen
rho           rhoInf;     // Indicates incompressible
rhoInf        1;          // Redundant for incompressible
CofR                (0.4974612746 -0.01671895744 0.125);;      // Center of rotation( Used only for moments calculation)
liftDir ( 0 1 0 );   // Lift Direction
dragDir ( 1 0 0 );   // Drag Direction
pitchAxis ( 0 0 0 ); // Pitching moment axis
magUInf 1000;     // free stream velocity magnitude 
lRef 1;          // lRef - reference length
Aref 0.05;      // Aref - reference area 
patches (wing);     // Patch where you want to evalueate FC and Forces

outputControl  timeStep; 
outputInterval 1; 
writetofile true;    // Select true if you want to output the files
type binData;

