/*--------------------------------*- C++ -*----------------------------------*\
| =========                 |                                                 |
| \\      /  F ield         | OpenFOAM: The Open Source CFD Toolbox           |
|  \\    /   O peration     | Version:  2.2.2                                 |
|   \\  /    A nd           | Web:      www.OpenFOAM.org                      |
|    \\/     M anipulation  |                                                 |
\*---------------------------------------------------------------------------*/
FoamFile
{
    version     2.0;
    format      ascii;
    class       dictionary;
    location    "system";
    object      ITHACAdict;
}

// EigenValue solver, can be eigen or spectra
EigenSolver eigen;

// Number of modes to output and to use for projection
NmodesUout 150;
NmodesUproj 20;
NmodesPout 150;
NmodesPproj 20;
NmodesSUPout 0;
NmodesSUPproj 0;
NmodesNutOut 150;
NmodesNutProj 20;

// Output format to save market vectors.
OutPrecision 20;
OutType fixed;

debug 1;

// Specific problem of a stationary case
tolerance 1e-5;

// Maximum number of iterations
maxIter 3000;
maxIterOn 1000;

// Reduced simple cicle parameters
residualJumpLim 1e-8;
normalizedResidualLim 1e-8;

// Inlet boundary conditions velocities.
online_velocities vel.txt;

// Distancing between intermediate snapshots to be exported (for turbulent case only)
middleStep 50;


