/*--------------------------------*- C++ -*----------------------------------*\
| =========                 |                                                 |
| \\      /  F ield         | OpenFOAM: The Open Source CFD Toolbox           |
|  \\    /   O peration     | Version:  5.0                                   |
|   \\  /    A nd           | Web:      www.OpenFOAM.org                      |
|    \\/     M anipulation  |                                                 |
\*---------------------------------------------------------------------------*/
FoamFile
{
    version     2.0;
    format      ascii;
    class       polyBoundaryMesh;
    location    "constant/polyMesh";
    object      boundary;
}
// * * * * * * * * * * * * * * * * * * * * * * * * * * * * * * * * * * * * * //

5
(
    inlet
    {
        type            patch;
        nFaces          100;
        startFace       49650;
    }
    outlet
    {
        type            patch;
        nFaces          150;
        startFace       49750;
    }
    frontAndBack
    {
        type            empty;
        inGroups        1(empty);
        nFaces          50000;
        startFace       49900;
    }
    inlet2
    {
        type            patch;
        nFaces          50;
        startFace       99900;
    }
    walls
    {
        type            wall;
        inGroups        1(wall);
        nFaces          400;
        startFace       99950;
    }
)

// ************************************************************************* //
