/*--------------------------------*- C++ -*----------------------------------*\
| =========                 |                                                 |
| \\      /  F ield         | OpenFOAM: The Open Source CFD Toolbox           |
|  \\    /   O peration     | Version:  4.x                                   |
|   \\  /    A nd           | Web:      www.OpenFOAM.org                      |
|    \\/     M anipulation  |                                                 |
\*---------------------------------------------------------------------------*/
FoamFile
{
    version     2.0;
    format      ascii;
    class       volScalarField;
    location    "0";
    object      alphat;
}
// * * * * * * * * * * * * * * * * * * * * * * * * * * * * * * * * * * * * * //

dimensions      [0 2 -1 0 0 0 0];

internalField   uniform 300;

boundaryField
{
    Adiabatic_walls
    {
        type            fixedValue;
        Prt             0;
        value           uniform 0;
    }

    Left
    {
        type            fixedValue;
        Prt             0;
        value           uniform 0;
    }
    Right
    {
        type            fixedValue;
        Prt             0;
        value           uniform 0;
    }

    Inlet
    {
        type            fixedValue;
        Prt             0;
        value           uniform 0;
    }
    Outlet
    {
        type            fixedValue;
        Prt             0;
        value           uniform 0;
    }

    frontAndBack
    {
        type empty;
    }
}


// ************************************************************************* //
