/*--------------------------------*- C++ -*----------------------------------*\
| =========                 |                                                 |
| \\      /  F ield         | OpenFOAM: The Open Source CFD Toolbox           |
|  \\    /   O peration     | Version:  2.2.2                                 |
|   \\  /    A nd           | Web:      www.OpenFOAM.org                      |
|    \\/     M anipulation  |                                                 |
\*---------------------------------------------------------------------------*/
FoamFile
{
    version     2.0;
    format      ascii;
    class       dictionary;
    location    "system";
    object      ITHACAdict;
}

// EigenValue solver, can be eigen or spectra
EigenSolver eigen;

// Number of modes to output and to use for projection
NDEIM 80;

// Output format to save market vectors.
OutPrecision 20;
OutType fixed;

// HR
HyperReduction GappyDEIM;
GreedyMetric L2;//L2, SOPT, SOPTE

// Inversion method 
// Possibilities : pinv_eigen_based, half_pinv_eigen_based, direct, fullPivLu, 
// partialPivLu, householderQr, colPivHouseholderQr, fullPivHouseholderQr, 
// completeOrthogonalDecomposition, jacobiSvd, llt, ldlt, bdcSvd  
InversionMethod completeOrthogonalDecomposition;

