/*--------------------------------*- C++ -*----------------------------------*\
| =========                 |                                                 |
| \\      /  F ield         | OpenFOAM: The Open Source CFD Toolbox           |
|  \\    /   O peration     | Version:  2.2.2                                 |
|   \\  /    A nd           | Web:      www.OpenFOAM.org                      |
|    \\/     M anipulation  |                                                 |
\*---------------------------------------------------------------------------*/
FoamFile
{
    version     2.0;
    format      ascii;
    class       dictionary;
    location    "system";
    object      ITHACAdict;
}

// EigenValue solver, can be eigen or spectra
EigenSolver eigen;

// Number of modes to output and to use for projection
NmodesUout 50;
NmodesUproj 15;

NmodesPout 50;
NmodesPproj 15;

NmodesSUPout 50;
NmodesSUPproj 15;

// Output format to save market vectors.
OutPrecision 10;
OutType fixed;
