/*--------------------------------*- C++ -*----------------------------------*\
| =========                 |                                                 |
| \\      /  F ield         | OpenFOAM: The Open Source CFD Toolbox           |
|  \\    /   O peration     | Version:  v1812                                 |
|   \\  /    A nd           | Web:      www.OpenFOAM.com                      |
|    \\/     M anipulation  |                                                 |
\*---------------------------------------------------------------------------*/
FoamFile
{
    version     2.0;
    format      ascii;
    class       volScalarField;
    location    "0";
    object      T;
}
// * * * * * * * * * * * * * * * * * * * * * * * * * * * * * * * * * * * * * //

dimensions      [0 0 0 1 0 0 0];


internalField   uniform 1; 

boundaryField
{
    left
    {
        type            fixedGradient;
        gradient        uniform 2;
    }
    right
    {
        type            fixedValue;
        value           uniform 0.5;
    }
    TopBottom
    {
        type            zeroGradient;
    }
    FrontBack
    {
        type            empty;
    }
}

