/*--------------------------------*- C++ -*----------------------------------*\
| =========                 |                                                 |
| \\      /  F ield         | OpenFOAM: The Open Source CFD Toolbox           |
|  \\    /   O peration     | Version:  5                                     |
|   \\  /    A nd           | Web:      www.OpenFOAM.org                      |
|    \\/     M anipulation  |                                                 |
\*---------------------------------------------------------------------------*/
FoamFile
{
    version     2.0;
    format      ascii;
    class       dictionary;
    location    "system";
    object      fvSolution;
}
// * * * * * * * * * * * * * * * * * * * * * * * * * * * * * * * * * * * * * //

solvers
{
    p
    {
        solver          GAMG;
        tolerance       1e-06;
        relTol          0.001;
        smoother        GaussSeidel;
    }
    /*p
    {
        solver          PCG;
        tolerance       1e-06;
        relTol          0.01;
        preconditioner  DIC;
    }*/

    /*"(U|k|epsilon|omega|f|v2|nuTilda)"
    {
        solver          smoothSolver;
        smoother        symGaussSeidel;
        tolerance       1e-07;
        relTol          0.01;
    }

    "(k|epsilon|omega|f|v2|nuTilda)"
    {
	solver	PBiCG;
	preconditioner DILU;
	tolerance 1e-7;
	relTol 	  0.1;
    }*/
    "(U|Usup|k|epsilon|omega|f|v2|nuTilda)"
    {
	solver           GAMG;
        tolerance        1e-7;
        relTol           0.001;
        smoother         GaussSeidel;
        nPreSweeps       0;
        nPostSweeps      2;
        cacheAgglomeration on;
        agglomerator     faceAreaPair;
        nCellsInCoarsestLevel 10;
        mergeLevels      1;
    }
    Phi
    {
        $p;
    }
}
potentialFlow
{
    nNonOrthogonalCorrectors 5;
}

SIMPLE
{
    nNonOrthogonalCorrectors 3;
    consistent      yes;
}

relaxationFactors
{
    fields
    {
	p	0.9;
    }
    equations
    {
        U               0.9; // 0.9 is more stable but 0.95 more convergent
        ".*"            0.9; // 0.9 is more stable but 0.95 more convergent
    }
}


// ************************************************************************* //
