/*--------------------------------*- C++ -*----------------------------------*\
| =========                 |                                                 |
| \\      /  F ield         | OpenFOAM: The Open Source CFD Toolbox           |
|  \\    /   O peration     | Version:  v2106                                 |
|   \\  /    A nd           | Website:  www.openfoam.com                      |
|    \\/     M anipulation  |                                                 |
\*---------------------------------------------------------------------------*/
FoamFile
{
    version     2.0;
    format      ascii;
    class       dictionary;
    object      fvSolution;
}
// * * * * * * * * * * * * * * * * * * * * * * * * * * * * * * * * * * * * * //

solvers
{
    "(U|S)"
    {
        solver          GAMG; //banana; //GAMG; 4(GAMG PBiCG PBiCGStab smoothSolver)
        smoother        GaussSeidel;
        //preconditioner  DILU;
        tolerance       1e-08;
        //tolerance       1e-12;
        relTol          0;
    }
}

SIMPLE
{
    nNonOrthogonalCorrectors 0;
}

relaxationFactors
{
    fields
    {
        p               0.3;
    }
    equations
    {
        U               0.9; // 0.9 is more stable but 0.95 more convergent
        ".*"            0.7; // 0.9 is more stable but 0.95 more convergent
    }
}


// ************************************************************************* //
